  3
nonperiodic system
O   0.000000   0.000000   0.319088   0.484442
O   -0.000000   1.135186   -0.159544   0.257779
O   -0.000000   -1.135186   -0.159544   0.257779
   
See ddec.sourceforge.net for latest version.
   
Computational parameters:
reference_weighting = 0.21
Number of radial integration shells = 100
Cutoff radius (pm) = 500
Error in the integrated total number of electrons before renormalization (e) = 1.590427e-08
charge convergence tolerance = 0.000010
minimum radius for electron cloud penetration fitting (pm) = 200.000000
Decay exponent for electron density of buried atom tails = 1.750000
Number of iterations to convergence = 22
   
The following XYZ coordinates are in angstroms. The atomic dipoles and quadrupoles are in atomic units.
atomic symbol, x, y, z, net_charge, dipole_x, dipole_y, dipole_z, dipole_mag, Qxy, Qxz, Qyz, Q(x^2-y^2), Q(3z^2 - R^2)
O   0.000000   0.000000   0.319088   0.484442   -0.000000   0.000000   -0.130115   0.130115   0.000000   0.000000   0.000000   0.032580   -0.172321
O   -0.000000   1.135186   -0.159544   0.257779   -0.000000   -0.030986   -0.010290   0.032650   0.000000   -0.000000   -0.098817   -0.087993   -0.282671
O   -0.000000   -1.135186   -0.159544   0.257779   0.000000   0.030986   -0.010290   0.032650   -0.000000   -0.000000   0.098817   -0.087993   -0.282671
   
The sperically averaged electron density of each atom fit to a function of the form exp(a - br) for r >= rmin_cloud_penetration
atomic symbol, x, y, z, a, b, Rsquared where a and b are in atomic units and Rsquared is the squared correlation coefficient
O   0.000000   0.000000   0.319088   2.941511   3.121293   0.979605
O   -0.000000   1.135186   -0.159544   1.104655   2.756002   0.967775
O   -0.000000   -1.135186   -0.159544   1.104654   2.756002   0.967775
   
06-Oct-2012 02:35:37
